Version 4
SHEET 1 1320 680
WIRE -304 -112 -304 -128
WIRE -1088 -16 -1200 -16
WIRE -896 -16 -1088 -16
WIRE -784 -16 -896 -16
WIRE -672 -16 -704 -16
WIRE -304 -16 -304 -32
WIRE 400 -16 -304 -16
WIRE -1200 16 -1200 -16
WIRE -1088 16 -1088 -16
WIRE -896 16 -896 -16
WIRE 96 32 48 32
WIRE 208 32 160 32
WIRE -304 96 -304 -16
WIRE 400 96 400 -16
WIRE -1200 112 -1200 96
WIRE -1088 112 -1088 80
WIRE -1088 112 -1200 112
WIRE -992 112 -1088 112
WIRE -896 112 -896 96
WIRE -896 112 -992 112
WIRE -672 112 -896 112
WIRE 640 112 624 112
WIRE 736 112 720 112
WIRE -992 128 -992 112
WIRE 128 144 128 128
WIRE -48 160 -80 160
WIRE 48 160 48 32
WIRE 48 160 32 160
WIRE 96 160 48 160
WIRE 208 176 208 32
WIRE 208 176 160 176
WIRE 224 176 208 176
WIRE 352 176 304 176
WIRE -304 192 -304 176
WIRE 96 192 -304 192
WIRE -304 208 -304 192
WIRE 400 208 400 192
WIRE 480 208 400 208
WIRE 528 208 512 208
WIRE 624 208 624 112
WIRE 624 208 608 208
WIRE 128 224 128 208
WIRE 400 224 400 208
WIRE 672 224 672 208
WIRE 624 240 624 208
WIRE 640 240 624 240
WIRE 736 256 736 112
WIRE 736 256 704 256
WIRE 800 256 736 256
WIRE 640 272 624 272
WIRE 800 272 800 256
WIRE -1424 288 -1424 272
WIRE -1264 288 -1264 272
WIRE -304 304 -304 288
WIRE 480 304 480 208
WIRE 528 304 480 304
WIRE 624 304 624 272
WIRE 624 304 608 304
WIRE 672 304 672 288
WIRE 400 320 400 304
WIRE 512 320 512 208
WIRE 512 320 400 320
WIRE 624 320 624 304
WIRE 400 336 400 320
WIRE 800 352 800 336
WIRE -1424 384 -1424 368
WIRE -1264 384 -1264 368
WIRE 624 416 624 400
WIRE -1424 496 -1424 480
WIRE -1312 496 -1312 480
WIRE -1200 496 -1200 480
WIRE -1088 496 -1088 480
WIRE -1424 592 -1424 576
WIRE -1312 592 -1312 576
WIRE -1200 592 -1200 576
WIRE -1088 592 -1088 576
FLAG -304 304 0
FLAG -1312 592 0
FLAG -1312 480 12V
FLAG 128 224 0
FLAG 128 128 12V
FLAG -1424 592 0
FLAG -672 -16 V+
FLAG -672 112 V-
FLAG -992 128 0
FLAG -1264 384 0
FLAG -1264 272 illu
FLAG -1424 384 0
FLAG -1424 272 illu
FLAG -1424 480 Set
FLAG -80 160 Set
FLAG 400 336 0
FLAG 624 416 0
FLAG 800 352 0
FLAG -1200 592 0
FLAG -1200 480 3.3V
FLAG 672 208 3.3V
FLAG 672 304 0
FLAG -1088 592 0
FLAG -1088 480 IN
FLAG -304 -128 IN
SYMBOL res -320 80 R0
SYMATTR InstName R1
SYMATTR Value 330k
SYMBOL res -320 192 R0
SYMATTR InstName R2
SYMATTR Value 220k
SYMBOL voltage -1312 480 R0
WINDOW 123 0 0 Left 0
WINDOW 39 0 0 Left 0
SYMATTR InstName V1
SYMATTR Value 12
SYMBOL voltage -1424 480 M0
WINDOW 123 0 0 Left 0
WINDOW 39 0 0 Left 0
SYMATTR InstName V2
SYMATTR Value PULSE(0 10 0 1m 0 0 1m)
SYMBOL AutoGenerated\\irfp460n 352 96 R0
SYMATTR InstName U2
SYMBOL res 320 160 R90
WINDOW 0 0 56 VBottom 2
WINDOW 3 32 56 VTop 2
SYMATTR InstName R4
SYMATTR Value 100
SYMBOL res 48 144 R90
WINDOW 0 0 56 VBottom 2
WINDOW 3 32 56 VTop 2
SYMATTR InstName R5
SYMATTR Value 1k
SYMBOL res -688 -32 R90
WINDOW 0 0 56 VBottom 2
WINDOW 3 32 56 VTop 2
SYMATTR InstName R6
SYMATTR Value {Rs}
SYMBOL res -912 112 M180
WINDOW 0 36 76 Left 2
WINDOW 3 36 40 Left 2
SYMATTR InstName R7
SYMATTR Value {Rsh}
SYMBOL diode -1104 16 R0
SYMATTR InstName D1
SYMATTR Value SolarDiode
SYMBOL res -1280 272 R0
SYMATTR InstName R8
SYMATTR Value 100Meg
SYMBOL voltage -1424 272 R0
WINDOW 123 0 0 Left 0
WINDOW 39 0 0 Left 0
SYMATTR InstName V3
SYMATTR Value 1k
SYMBOL current -1200 96 R180
WINDOW 0 24 80 Left 2
WINDOW 3 24 0 Left 2
SYMATTR InstName I1
SYMATTR Value {ISC}
SYMBOL AutoGenerated\\amp_tlv27x_highVdd 128 176 R0
SYMATTR InstName U1
SYMBOL res 384 208 R0
SYMATTR InstName R3
SYMATTR Value 100m
SYMBOL AutoGenerated\\amp_tlv27x_highVdd 672 256 R0
SYMATTR InstName U3
SYMBOL res 624 288 R90
WINDOW 0 0 56 VBottom 2
WINDOW 3 32 56 VTop 2
SYMATTR InstName R9
SYMATTR Value 1k
SYMBOL res 624 192 R90
WINDOW 0 0 56 VBottom 2
WINDOW 3 32 56 VTop 2
SYMATTR InstName R10
SYMATTR Value 1k
SYMBOL res 736 96 R90
WINDOW 0 0 56 VBottom 2
WINDOW 3 32 56 VTop 2
SYMATTR InstName R11
SYMATTR Value 15k
SYMBOL res 608 304 R0
SYMATTR InstName R12
SYMATTR Value 15k
SYMBOL cap 784 272 R0
SYMATTR InstName C2
SYMATTR Value 100p
SYMBOL voltage -1200 480 R0
WINDOW 123 0 0 Left 0
WINDOW 39 0 0 Left 0
SYMATTR InstName V4
SYMATTR Value 3.3
SYMBOL voltage -1088 480 R0
WINDOW 123 0 0 Left 0
WINDOW 39 0 0 Left 0
SYMATTR InstName V5
SYMATTR Value 20
SYMBOL res -320 -128 R0
SYMATTR InstName R13
SYMATTR Value 10
SYMBOL cap 160 16 R90
WINDOW 0 0 32 VBottom 2
WINDOW 3 32 32 VTop 2
SYMATTR InstName C1
SYMATTR Value 1n
TEXT -344 344 Left 2 !.tran 10m
TEXT -1504 -120 Left 2 !.model solardiode d(is=io n=a_n tref=temp)
TEXT -1504 -288 Left 2 !.param rs=1
TEXT -1504 -264 Left 2 !.param rsh=10k
TEXT -1504 -240 Left 2 !.param iph=1
TEXT -1504 -216 Left 2 !.param io=1e-6
TEXT -1504 -192 Left 2 !.param a_n=60
TEXT -1504 -168 Left 2 !.param isc=600m
TEXT 464 80 Left 2 ;Current Sense
TEXT -48 56 Left 2 ;Tracer
TEXT -1184 -56 Left 2 ;PV
